RUNSPEC

METRIC

DIMENS
99 94 52 /

EQLDIMS
2
/

--DI 1-47
--1-17 - noncoll
--18-47 - coll
--DII 48-52

OIL
WATER

--MESSAGES
-- --------------- print limit --------------  ---------------- stop limit ----------------
--   mes     com    war     prb    err   bug      mes     com    war     prb    err   bug
--    1       2      3       4      5     6        1       2      3       4      5     6
--   200000  200000 200000   6000    200    1     200000  200000 200000   6000    200    1  /

WELLDIMS
-- MaxWells  MaxCompl  MaxGroups   MaxWellsPerGroup   MaxSeparatorStages
     200        200        50             20             /
TABDIMS
--   1       2      3       4      5      6      7
-- NTSFUN  NTPVT  NSSFUN  NPPVT  NTFIP  NRPVT  unused  NTENDP
     2      2      1*     1*     2*     1*     /
REGDIMS
--    1      2       3       4        5          6           7
--  NTFIP  NMFIPR  NRFREG  NTFREG  maxTRACK  maxCOALNUM  maxOPERNUM
      2     1       1*      1*       1*         1*          1*   /
FAULTDIM
100000 /

ENDSCALE
/

START
 01 'JUN' 1968 /
/


GRID

NEWTRAN

INCLUDE
'GEOL_ups/grid.ecl' / -- grid 

INCLUDE
'GEOL_ups/ntg.ecl' / -- NTG

INCLUDE
'GEOL_ups/poro.ecl' / -- poro

INCLUDE
'GEOL_ups/permx.ecl' / -- poro

INCLUDE
'GEOL_ups/ARRMPV.inc' / -- arrmpv

NOECHO


ARITHMETIC
--PERMX = 6.58850E-03*EXP(poro*100*5.88593E-01)
--PERMX = 0.667774086 * PERMX 
PERMZ = 0.8 * PERMX
MULTPV = (ARRMPV == 1) * 10000 + (ARRMPV!=1) * 1
/

COPY
PERMX PERMY /
/

PROPS
DENSITY
891   1190.0000      1.3 -- ISKAN
/
893   1183.0000      1.3 -- SHINGAKUL
/

PVTW
90.2 1 4.5e-5 1.14 0 -- Вода, использованная для создания начальной водонасыщенности 
 / и вытеснения нефти, отобрана на НПС Казангулово
94.5 1 4.5e-5 1.25 0 -- отобрана на устье скважин 240 & 244
 /

PVCDO
90.2	1.154	13.385E-5	3.82	2.11216E-03 -- Iskan 1968г. по трем пробам из скв. 13ИСК.
/
94.5	1.160	7.72628E-05	2.21	1.560306E-03 -- Shingacul 1968г. данные по скважине 22КЗН
/

SCALECRS
YES
/


SWOF
0.1460000	0.0000000	1.0000000	1.0000000	--	KRO	1.00000
0.1576800	0.0011000	0.9500000	0.9085240	--	KRW	0.07420
0.1693600	0.0022000	0.9000000	0.8337007	--	SWC	0.14600
0.1810400	0.0032000	0.8499000	0.7712635	--	SWOCR	0.27000
0.1927200	0.0043000	0.7999000	0.7183028	--	Pc(max)	0.63498
0.2044000	0.0053000	0.7512000	0.6727634	--	PC_curve	
0.2160800	0.0064000	0.7089000	0.6331505	--	no	1.60000
0.2277600	0.0075000	0.6683000	0.5983499	--	nw	6.00000
0.2394400	0.0086000	0.6278000	0.5675132	--		1
0.2511200	0.0097000	0.5874000	0.5399827	--		1
0.2628000	0.0108000	0.5501000	0.5152403	 --	a	0.0947
0.2744800	0.0118000	0.5153000	0.4928720	 --	b	-0.826411601
0.2861600	0.0128000	0.4827000	0.4725427	 --	lower_lim_norm	0.1
0.2978400	0.0138000	0.4500000	0.4539786	 --	upper_lim_norm	1
0.3095200	0.0149000	0.4188000	0.4369531	 --	K_abs(air), D	0.301
0.3212000	0.0159000	0.3900000	0.4212776	 --	K_abs(oil), D	0.201
0.3328800	0.0170000	0.3625000	0.4067932	 --	Rel	0.667774086
0.3445600	0.0181000	0.3366000	0.3933655			
0.3562400	0.0192000	0.3119000	0.3808797			
0.3679200	0.0204000	0.2883000	0.3692375			
0.3796000	0.0216000	0.2663000	0.3583536			
0.3912800	0.0227000	0.2452000	0.3481544			
0.4029600	0.0238000	0.2253000	0.3385754			
0.4146400	0.0248000	0.2072000	0.3295601			
0.4263200	0.0259000	0.1901000	0.3210588			
0.4380000	0.0269000	0.1736000	0.3130274			
0.4496800	0.0280000	0.1579000	0.3054271			
0.4613600	0.0290000	0.1438000	0.2982229			
0.4730400	0.0301000	0.1308000	0.2913839			
0.4847200	0.0311000	0.1187000	0.2848821			
0.4964000	0.0321000	0.1068000	0.2786925			
0.5080800	0.0331000	0.0965000	0.2727926			
0.5197600	0.0342000	0.0867000	0.2671617			
0.5314400	0.0353000	0.0783000	0.2617815			
0.5431200	0.0365000	0.0703000	0.2566351			
0.5548000	0.0377000	0.0625000	0.2517071			
0.5664800	0.0390000	0.0552000	0.2469834			
0.5781600	0.0402000	0.0479000	0.2424513			
0.5898400	0.0413000	0.0419000	0.2380990			
0.6015200	0.0424000	0.0367000	0.2339158			
0.6132000	0.0435000	0.0319000	0.2298915			
0.6248800	0.0450000	0.0274000	0.2260172			
0.6365600	0.0472000	0.0237000	0.2222843			
0.6482400	0.0500000	0.0204000	0.2186849			
0.6599200	0.0529000	0.0171000	0.2152119			
0.6716000	0.0561000	0.0140000	0.2118585			
0.6832800	0.0597000	0.0112000	0.2086185			
0.6949600	0.0634000	0.0084000	0.2054859			
0.7066400	0.0670000	0.0056000	0.2024555			
0.7183200	0.0706000	0.0028000	0.1995221			
0.7300000	0.0742000	0.0000000	0.1966810			
0.7500000	0.1427778	0.0000000	0.1920180			
0.7700000	0.2113556	0.0000000	0.1875924			
0.7900000	0.2799333	0.0000000	0.1833862			
0.8100000	0.3485111	0.0000000	0.1793829			
0.8300000	0.4170889	0.0000000	0.1755678			
0.8500000	0.4856667	0.0000000	0.1719275			
0.8700000	0.5542444	0.0000000	0.1684499			
0.8900000	0.6228222	0.0000000	0.1651241			
0.9100000	0.6914000	0.0000000	0.1619400			
0.9300000	0.7599778	0.0000000	0.1588885			
0.9500000	0.8285556	0.0000000	0.1559613			
0.9700000	0.8971333	0.0000000	0.1531506			
0.9900000	0.9657111	0.0000000	0.1504495			
1.0000000	1.0000000	0.0000000	0.0000000			
 /
0.1260000	0.0000000	1.0000000	1.0000000	--	KRO	1.00000
0.1367600	0.0008000	0.9683000	0.8860795	--	KRW	0.07100
0.1475200	0.0017000	0.9366000	0.7942257	--	SWC	0.12600
0.1582800	0.0025000	0.9049000	0.7186948	--	SWOCR	0.34000
0.1690400	0.0033000	0.8733000	0.6555622	--	Pc(max)	1.34076
0.1798000	0.0041000	0.8416000	0.6020581	--	PC_curve	
0.1905600	0.0050000	0.8099000	0.5561739	--	no	1.60000
0.2013200	0.0058000	0.7782000	0.5164187	--	nw	6.00000
0.2120800	0.0066000	0.7465000	0.4816633	--		1
0.2228400	0.0074000	0.7148000	0.4510376	--		1
0.2336000	0.0083000	0.6831000	0.4238603	 --	a	0.0947
0.2443600	0.0091000	0.6515000	0.3995910	 --	b	-1.151
0.2551200	0.0099000	0.6198000	0.3777955	 --	lower_lim_norm	0.1
0.2658800	0.0107000	0.5881000	0.3581211	 --	upper_lim_norm	1
0.2766400	0.0116000	0.5564000	0.3402785	 --	K_abs(air), D	0.326
0.2874000	0.0124000	0.5247000	0.3240283	 --	K_abs(oil), D	0.219
0.2981600	0.0132000	0.4930000	0.3091705	 --	Rel	0.671779141
0.3089200	0.0140000	0.4613000	0.2955372			
0.3196800	0.0149000	0.4297000	0.2829858			
0.3304400	0.0157000	0.3980000	0.2713952			
0.3412000	0.0165000	0.3663000	0.2606612			
0.3519600	0.0173000	0.3346000	0.2506943			
0.3627200	0.0182000	0.3029000	0.2414166			
0.3734800	0.0190000	0.2712000	0.2327606			
0.3842400	0.0198000	0.2395000	0.2246671			
0.3950000	0.0206000	0.2079000	0.2170841			
0.4057600	0.0215000	0.1762000	0.2099658			
0.4165200	0.0223000	0.1445000	0.2032716			
0.4272800	0.0231000	0.1128000	0.1969655			
0.4380400	0.0239000	0.0811000	0.1910154			
0.4488000	0.0248000	0.0494000	0.1853926			
0.4595600	0.0257000	0.0353000	0.1800714			
0.4703200	0.0267000	0.0287000	0.1750287			
0.4810800	0.0278000	0.0247000	0.1702436			
0.4918400	0.0288000	0.0216000	0.1656974			
0.5026000	0.0299000	0.0195000	0.1613728			
0.5133600	0.0310000	0.0177000	0.1572545			
0.5241200	0.0321000	0.0159000	0.1533284			
0.5348800	0.0332000	0.0141000	0.1495816			
0.5456400	0.0343000	0.0122000	0.1460023			
0.5564000	0.0355000	0.0106000	0.1425798			
0.5671600	0.0371000	0.0093000	0.1393042			
0.5779200	0.0388000	0.0080000	0.1361666			
0.5886800	0.0406000	0.0068000	0.1331584			
0.5994400	0.0430000	0.0058000	0.1302721			
0.6102000	0.0454000	0.0048000	0.1275006			
0.6209600	0.0478000	0.0038000	0.1248373			
0.6317200	0.0502000	0.0028000	0.1222760			
0.6424800	0.0540000	0.0018000	0.1198113			
0.6532400	0.0625000	0.0009000	0.1174378			
0.6640000	0.0710000	0.0000000	0.1151507			
0.6890000	0.1502382	0.0000000	0.1101456			
0.7140000	0.2185471	0.0000000	0.1055323			
0.7390000	0.2868559	0.0000000	0.1012675			
0.7640000	0.3551647	0.0000000	0.0973138			
0.7890000	0.4234735	0.0000000	0.0936391			
0.8140000	0.4917824	0.0000000	0.0902154			
0.8390000	0.5600912	0.0000000	0.0870185			
0.8640000	0.6284000	0.0000000	0.0840270			
0.8890000	0.6967088	0.0000000	0.0812221			
0.9140000	0.7650176	0.0000000	0.0785872			
0.9390000	0.8333265	0.0000000	0.0761077			
0.9640000	0.9016353	0.0000000	0.0737705			
0.9890000	0.9699441	0.0000000	0.0715640			
1.0000000	1.0000000	0.0000000	0.0000000			
 /

INCLUDE
'GEOL_ups/ARRNUM.inc' /

ARITHMETIC
SOWCR = 0.33
SWL = 7.07767E+03*PORO^4 - 5.04617E+03*PORO^3 + 1.36104E+03*PORO^2 - 1.64983E+02*PORO + 7.64190E+00
SWL = SWL * (PORO<0.1927) + 0.040537 * (PORO>=0.1927)
SWL = MIN (0.4, SWL)
PCW=0.63498*28*0.318316*((poro/permx)^0.5)
KRW = 1 
KRWR = (ARRNUM==1) * 0.0742 + (ARRNUM==2) * 0.071
 /

COPY
 SWL SWCR /
/

ROCK
 218 5.0E-005 
/
 218 5.0E-005 
/

REGIONS

INCLUDE
'GEOL_ups/ARRNUM.inc' /

ARITHMETIC
pvtnum=1*(ARRNUM==1)+2*(ARRNUM!=1)
satnum=pvtnum 
eqlnum=pvtnum 
fipnum=pvtnum 
/

SOLUTION

EQUIL
     1952.6	218   1952.6    1*     1*    1*    1	1	0	1*   / 
	 1952.6	218   1952.6    1*     1*    1*    1	1	0	1*   / 
/

RSVD
1703.5 34.9
1710 34.9
/
1703.5 34.9
1710 34.9
/


SUMMARY
ALL
FOPRH
FOIRH
FWPRH
FWIRH
FGPRH
FGIRH
FVPRH
FVIRH
FWCTH
FWGRH
WBHPH
FOIPH
FWIPH
FGIPH
FAQRH
GOPRH
GOIRH
GWPRH
GWIRH
GGPRH
GGIRH
GVPRH
GVIRH
GWCTH
GWGRH
WTHPH
FOIPLH
WOPRH
WOIRH
WWPRH
WWIRH
WGPRH
WGIRH
WVPRH
WVIRH
WWCTH
WWGRH
WPIH
FOIPGH
FOPTH
FOITH
FWPTH
FWITH
FGPTH
FGITH
FVPTH
FVITH
FGORH
GOPTH
GOITH
GWPTH
GWITH
GGPTH
GGITH
GVPTH
GVITH
GGORH
WOPTH
WOITH
WWPTH
WWITH
WGPTH
WGITH
WVPTH
WVITH
WGORH
WBP9
WBHP

RECU

Delt 1 month
Rate 1 month EXACT FIELD WELL end
Freq 1  1  1


Array EQUA month end
1/
GENE rest

EFOR WELL 'DD.MM.YYYY' MDL MDU RAD SKIN MULT

EUNI METRes METRes /

HFOR WELL 'DD.MM.YYYY' QOIL QWAT QWIN WEFA THP BHP

HUNI
sm3/day sm3/day ksm3 ksm3 bara /

INCLUDE 
  'GEOL_ups/Wells/Well.dat' /
INCLUDE 
  'INCL/perf_isk.inc' /
 INCLUDE 
  'INCL/perf_shk.inc' /
INCLUDE 
  'INCL/event_isk.inc' /
 INCLUDE 
  'INCL/event_shk.inc' /
INCLUDE 
  'INCL/hist_isk.inc' /
 INCLUDE 
  'INCL/hist_shk.inc' /

READ 1 JAN 2014 /

STOP

